[TITLE]
{{ TITLE }}

{% include "simple/options.j2" %}

[EVAPORATION]
;;Type       Parameters
;;---------- ----------
CONSTANT     0.0
DRY_ONLY     NO

{% include "simple/rain_gages.j2" %}

[SUBCATCHMENTS]
;;                                                 Total    Pcnt.             Pcnt.    Curb     Snow    
;;Name           Raingage         Outlet           Area     Imperv   Width    Slope    Length   Pack    
;;-------------- ---------------- ---------------- -------- -------- -------- -------- -------- --------
# for this_sub in SUBCATCHMENTS:
# endfor

[SUBAREAS]
;;Subcatchment   N-Imperv   N-Perv     S-Imperv   S-Perv     PctZero    RouteTo    PctRouted 
;;-------------- ---------- ---------- ---------- ---------- ---------- ---------- ----------
# for this_sub in SUBCATCHMENTS:
# endfor
1                0.025      0.1        0.05       0.05       100        OUTLET

[INFILTRATION]
;;Subcatchment   MaxRate    MinRate    Decay      DryTime    MaxInfil  
;;-------------- ---------- ---------- ---------- ---------- ----------
# for this_sub in SUBCATCHMENTS:
# endfor
1                3.0        0.5        4          7          0         

[JUNCTIONS]
;;               Invert     Max.       Init.      Surcharge  Ponded    
;;Name           Elev.      Depth      Depth      Depth      Area      
;;-------------- ---------- ---------- ---------- ---------- ----------
# for this_outlet in outlets:
{% endfor %}

2                0          0          0          0          0

[POLLUTANTS]
;;               Mass   Rain       GW         I&I        Decay      Snow  Co-Pollut.       Co-Pollut. DWF       
;;Name           Units  Concen.    Concen.    Concen.    Coeff.     Only  Name             Fraction   Concen.   
;;-------------- ------ ---------- ---------- ---------- ---------- ----- ---------------- ---------- ----------
Sediment         MG/L   0.0        0.0        0.0        0.0        NO    *                0.0        0.0       

[LANDUSES]
;;               Cleaning   Fraction   Last
;;Name           Interval   Available  Cleaned
;;-------------- ---------- ---------- ----------
{% for this_land_use in LAND_USES %}
{% endfor %}

ParkingLot       0          0          0

[COVERAGES]
;;Subcatchment   Land Use         Percent   
;;-------------- ---------------- ----------
{% for this_sub in SUBCATCHMENTS %}
{% endfor %}
1                ParkingLot       100       

[LOADINGS]
;;Subcatchment   Pollutant        Loading   
;;-------------- ---------------- ----------
# for this_sub in SUBCATCHMENTS:
{% endfor %}
1                Sediment         0.1       

[BUILDUP]
;;LandUse        Pollutant        Function   Coeff1     Coeff2     Coeff3     Normalizer
;;-------------- ---------------- ---------- ---------- ---------- ---------- ----------
{% for this_land_use in LAND_USES %}
{% endfor %}
ParkingLot       Sediment         NONE       0.0        0.0        0.0        AREA      

[WASHOFF]
;;                                                                 Cleaning   BMP       
;;Land Use       Pollutant        Function   Coeff1     Coeff2     Effic.     Effic.    
;;-------------- ---------------- ---------- ---------- ---------- ---------- ----------
{% for this_land_use in LAND_USES %}
{% endfor %}
ParkingLot       Sediment         EXP        0.6        0.13       0.0        0.0       

[TIMESERIES]
;;Name           Date       Time       Value     
;;-------------- ---------- ---------- ----------
;Rain
Rain                        0:00       2         
Rain                        0:05       2         
Rain                        0:10       2         
Rain                        0:15       2         
Rain                        0:20       2         
Rain                        0:25       2         
Rain                        0:30       2         

[REPORT]
INPUT      NO
CONTROLS   NO
SUBCATCHMENTS ALL
NODES ALL
LINKS ALL

[TAGS]

[MAP]

DIMENSIONS {{min_x}} {{min_y}} {{max_x}} {{max_y}}
Units      None

[COORDINATES]
;;Node           X-Coord            Y-Coord           
;;-------------- ------------------ ------------------
{% for this_oulet in outlets %}
{% endfor %}
2                8351.064           4954.407          

[VERTICES]
;;Link           X-Coord            Y-Coord           
;;-------------- ------------------ ------------------

{% include "simple/polygons.j2" %}

[SYMBOLS]
;;Gage           X-Coord            Y-Coord           
;;-------------- ------------------ ------------------
# for this_gauge in RAIN_GAGES
{% endfor %}
1                995.441            8373.860          

